/*--------------------------------*- C++ -*----------------------------------*\
| =========                 |                                                 |
| \\      /  F ield         | OpenFOAM: The Open Source CFD Toolbox           |
|  \\    /   O peration     | Version:  v2006                                 |
|   \\  /    A nd           | Web:      www.OpenFOAM.org                      |
|    \\/     M anipulation  |                                                 |
\*---------------------------------------------------------------------------*/
FoamFile
{
    version     2.0;
    format      ascii;
    class       dictionary;
    object      blockMeshDict;
}
// * * * * * * * * * * * * * * * * * * * * * * * * * * * * * * * * * * * * * //

scale 0.001;



vertices
(
    (0  	0  	0)   //0
    (10.0  	0  	0)   //1
    (10.0  	10.0  	0)   //2
    (0  	10.0  	0)   //3
    (0  	0  	10.0)   //4
    (10.0  	0  	10.0)   //5
    (10.0  	10.0  	10.0)   //6
    (0  	10.0  	10.0)   //7
);

blocks
(
	hex (0 1 2 3 4 5 6 7) (5 5 5) simpleGrading (1 1 1)		
);

edges
(
);

boundary
(
	top
    {
        type patch;
        faces
        (
            (4 5 6 7)
        );
    }
	
	bottom
    {
        type patch;
        faces
        (
            (0 3 2 1)
        );
    }
	
	right
    {
        type patch;
        faces
        (
            (1 2 6 5)
        );
    }
	
	left
    {
        type patch;
        faces
        (
            (0 4 7 3)
        );
    }

    front
    {
        type patch;
        faces
        (
            (2 3 7 6)
        );
    }
	
    back
    {
        type patch;
        faces
        (
            (0 1 4 5)
        );
    }
);

mergePatchPairs
(
);

// ************************************************************************* //
